<?xml version="1.0" encoding="UTF-8"?>

<!-- generated on 2026-05-04 00:28:18.737093 by randomTrips.py UNKNOWN
<configuration>
    <net-file value="/home/umd-user/Desktop/OpenCDA/opencda/planning_module/opencda_scenario/assets/Town06/Town06.net.xml"/>
    <output-trip-file value="/home/umd-user/Desktop/OpenCDA/opencda/planning_module/opencda_scenario/assets/Town06/Town06.trips.xml"/>
    <route-file value="/home/umd-user/Desktop/OpenCDA/opencda/planning_module/opencda_scenario/assets/Town06/Town06.rou.xml"/>
    <trip-attributes value="departLane=&quot;random&quot; departSpeed=&quot;max&quot;"/>
    <vehicle-class value="passenger"/>
    <random-departpos value="True"/>
    <fringe-factor value="8.0"/>
    <validate value="True"/>
    <period value="0.75"/>
    <random-depart value="True"/>
</configuration>
-->

<!-- generated on 2026-05-04 00:28:18 by Eclipse SUMO duarouter Version 1.18.0
<configuration xmlns:xsi="http://www.w3.org/2001/XMLSchema-instance" xsi:noNamespaceSchemaLocation="http://sumo.dlr.de/xsd/duarouterConfiguration.xsd">

    <input>
        <net-file value="/home/umd-user/Desktop/OpenCDA/opencda/planning_module/opencda_scenario/assets/Town06/Town06.net.xml"/>
        <route-files value="/home/umd-user/Desktop/OpenCDA/opencda/planning_module/opencda_scenario/assets/Town06/Town06.trips.xml"/>
    </input>

    <output>
        <output-file value="/home/umd-user/Desktop/OpenCDA/opencda/planning_module/opencda_scenario/assets/Town06/Town06.trips.xml.tmp"/>
        <alternatives-output value="NUL"/>
        <write-trips value="true"/>
    </output>

    <time>
        <begin value="0"/>
        <end value="3600.0"/>
    </time>

    <report>
        <no-warnings value="true"/>
        <ignore-errors value="true"/>
        <no-step-log value="true"/>
    </report>

</configuration>
-->

<routes xmlns:xsi="http://www.w3.org/2001/XMLSchema-instance" xsi:noNamespaceSchemaLocation="http://sumo.dlr.de/xsd/routes_file.xsd">
    <vType id="passenger" vClass="passenger"/>
    <trip id="0" type="passenger" depart="0.00" departLane="random" departPos="0.46" departSpeed="max" from="-36" to="-1"/>
    <trip id="1" type="passenger" depart="0.25" departLane="random" departPos="2.88" departSpeed="max" from="-14" to="-46"/>
    <trip id="2" type="passenger" depart="0.50" departLane="random" departPos="80.12" departSpeed="max" from="-8" to="-38"/>
    <trip id="3" type="passenger" depart="1.00" departLane="random" departPos="50.99" departSpeed="max" from="-33" to="-10"/>
    <trip id="4" type="passenger" depart="1.00" departLane="random" departPos="4.90" departSpeed="max" from="-14" to="-55"/>
    <trip id="5" type="passenger" depart="2.50" departLane="random" departPos="11.66" departSpeed="max" from="-30" to="-55"/>
    <trip id="6" type="passenger" depart="2.75" departLane="random" departPos="16.42" departSpeed="max" from="57" to="-15#0"/>
    <trip id="7" type="passenger" depart="4.50" departLane="random" departPos="382.20" departSpeed="max" from="-40" to="22#0"/>
    <trip id="8" type="passenger" depart="4.75" departLane="random" departPos="0.25" departSpeed="max" from="23" to="-29#0"/>
    <trip id="9" type="passenger" depart="6.00" departLane="random" departPos="12.55" departSpeed="max" from="-29#0" to="-35"/>
    <trip id="10" type="passenger" depart="6.50" departLane="random" departPos="11.52" departSpeed="max" from="-15#0" to="-48#1"/>
    <trip id="11" type="passenger" depart="10.50" departLane="random" departPos="21.83" departSpeed="max" from="22#0" to="-8"/>
    <trip id="12" type="passenger" depart="11.00" departLane="random" departPos="25.53" departSpeed="max" from="22#0" to="-33"/>
    <trip id="13" type="passenger" depart="11.25" departLane="random" departPos="26.87" departSpeed="max" from="-34" to="-14"/>
    <trip id="14" type="passenger" depart="14.50" departLane="random" departPos="16.22" departSpeed="max" from="68" to="-33"/>
    <trip id="15" type="passenger" depart="14.50" departLane="random" departPos="18.61" departSpeed="max" from="-29#0" to="-14"/>
    <trip id="16" type="passenger" depart="14.75" departLane="random" departPos="110.89" departSpeed="max" from="-29#1" to="-41"/>
    <trip id="17" type="passenger" depart="15.25" departLane="random" departPos="33.89" departSpeed="max" from="-15#1" to="-52#1"/>
    <trip id="18" type="passenger" depart="16.75" departLane="random" departPos="19.54" departSpeed="max" from="-58" to="-15#1"/>
    <trip id="19" type="passenger" depart="17.00" departLane="random" departPos="5.80" departSpeed="max" from="-33" to="-10"/>
    <trip id="20" type="passenger" depart="19.75" departLane="random" departPos="0.26" departSpeed="max" from="1" to="22#0"/>
    <trip id="21" type="passenger" depart="20.75" departLane="random" departPos="0.09" departSpeed="max" from="-50" to="-62"/>
    <trip id="22" type="passenger" depart="21.00" departLane="random" departPos="15.86" departSpeed="max" from="-13" to="-41"/>
    <trip id="23" type="passenger" depart="21.50" departLane="random" departPos="0.74" departSpeed="max" from="-37" to="-41"/>
    <trip id="24" type="passenger" depart="26.75" departLane="random" departPos="33.06" departSpeed="max" from="0" to="22#0"/>
    <trip id="25" type="passenger" depart="27.00" departLane="random" departPos="8.49" departSpeed="max" from="-41" to="1"/>
    <trip id="26" type="passenger" depart="27.50" departLane="random" departPos="2.11" departSpeed="max" from="-14" to="-32"/>
    <trip id="27" type="passenger" depart="29.00" departLane="random" departPos="13.39" departSpeed="max" from="-8" to="22#1"/>
    <trip id="28" type="passenger" depart="29.50" departLane="random" departPos="4.63" departSpeed="max" from="-52#0" to="68"/>
    <trip id="29" type="passenger" depart="29.75" departLane="random" departPos="53.65" departSpeed="max" from="-36" to="-13"/>
    <trip id="30" type="passenger" depart="31.75" departLane="random" departPos="12.42" departSpeed="max" from="-59" to="-39"/>
    <trip id="31" type="passenger" depart="32.25" departLane="random" departPos="109.55" departSpeed="max" from="-38" to="26"/>
    <trip id="32" type="passenger" depart="33.50" departLane="random" departPos="22.51" departSpeed="max" from="-35" to="-29#1"/>
    <trip id="33" type="passenger" depart="33.50" departLane="random" departPos="13.23" departSpeed="max" from="58" to="-62"/>
    <trip id="34" type="passenger" depart="34.00" departLane="random" departPos="7.20" departSpeed="max" from="-41" to="-15#1"/>
    <trip id="35" type="passenger" depart="34.75" departLane="random" departPos="43.85" departSpeed="max" from="-50" to="33"/>
    <trip id="36" type="passenger" depart="36.00" departLane="random" departPos="4.36" departSpeed="max" from="-29#1" to="-10"/>
    <trip id="37" type="passenger" depart="36.75" departLane="random" departPos="7.76" departSpeed="max" from="68" to="-32"/>
    <trip id="38" type="passenger" depart="36.75" departLane="random" departPos="7.53" departSpeed="max" from="22#1" to="-59"/>
    <trip id="39" type="passenger" depart="37.50" departLane="random" departPos="42.77" departSpeed="max" from="58" to="23"/>
    <trip id="40" type="passenger" depart="37.75" departLane="random" departPos="4.50" departSpeed="max" from="-1" to="-38"/>
    <trip id="41" type="passenger" depart="38.50" departLane="random" departPos="14.64" departSpeed="max" from="0" to="-41"/>
    <trip id="42" type="passenger" depart="38.75" departLane="random" departPos="2.09" departSpeed="max" from="-62" to="-52#0"/>
    <trip id="43" type="passenger" depart="39.00" departLane="random" departPos="19.01" departSpeed="max" from="27" to="-52#0"/>
    <trip id="44" type="passenger" depart="39.25" departLane="random" departPos="47.80" departSpeed="max" from="-32" to="-14"/>
    <trip id="45" type="passenger" depart="39.50" departLane="random" departPos="90.82" departSpeed="max" from="-50" to="-10"/>
    <trip id="46" type="passenger" depart="41.00" departLane="random" departPos="28.72" departSpeed="max" from="-58" to="-33"/>
    <trip id="47" type="passenger" depart="43.25" departLane="random" departPos="12.05" departSpeed="max" from="-1" to="-59"/>
    <trip id="48" type="passenger" depart="43.50" departLane="random" departPos="21.81" departSpeed="max" from="24" to="-15#1"/>
    <trip id="49" type="passenger" depart="46.00" departLane="random" departPos="52.97" departSpeed="max" from="26" to="-14"/>
    <trip id="50" type="passenger" depart="46.25" departLane="random" departPos="40.99" departSpeed="max" from="-16" to="-55"/>
    <trip id="51" type="passenger" depart="46.50" departLane="random" departPos="1.85" departSpeed="max" from="-14" to="-29#1"/>
    <trip id="52" type="passenger" depart="47.75" departLane="random" departPos="26.05" departSpeed="max" from="26" to="1"/>
    <trip id="53" type="passenger" depart="48.00" departLane="random" departPos="36.35" departSpeed="max" from="-16" to="-70"/>
    <trip id="54" type="passenger" depart="48.50" departLane="random" departPos="42.54" departSpeed="max" from="-37" to="58"/>
    <trip id="55" type="passenger" depart="48.75" departLane="random" departPos="6.62" departSpeed="max" from="-13" to="-29#0"/>
    <trip id="56" type="passenger" depart="49.25" departLane="random" departPos="11.62" departSpeed="max" from="-34" to="20"/>
    <trip id="57" type="passenger" depart="50.25" departLane="random" departPos="12.30" departSpeed="max" from="-39" to="-28"/>
    <trip id="58" type="passenger" depart="50.50" departLane="random" departPos="49.49" departSpeed="max" from="-54" to="-19"/>
    <trip id="59" type="passenger" depart="51.25" departLane="random" departPos="2.30" departSpeed="max" from="-59" to="-40"/>
    <trip id="60" type="passenger" depart="51.25" departLane="random" departPos="0.59" departSpeed="max" from="33" to="-15#0"/>
    <trip id="61" type="passenger" depart="52.75" departLane="random" departPos="37.14" departSpeed="max" from="54" to="0"/>
    <trip id="62" type="passenger" depart="53.50" departLane="random" departPos="32.16" departSpeed="max" from="-35" to="-8"/>
    <trip id="63" type="passenger" depart="53.50" departLane="random" departPos="21.38" departSpeed="max" from="-49" to="-16"/>
    <trip id="64" type="passenger" depart="56.50" departLane="random" departPos="16.54" departSpeed="max" from="-34" to="-48#1"/>
    <trip id="65" type="passenger" depart="56.75" departLane="random" departPos="11.33" departSpeed="max" from="-29#0" to="-8"/>
    <trip id="66" type="passenger" depart="57.25" departLane="random" departPos="6.09" departSpeed="max" from="0" to="-58"/>
    <trip id="67" type="passenger" depart="57.75" departLane="random" departPos="14.94" departSpeed="max" from="24" to="-36"/>
    <trip id="68" type="passenger" depart="60.25" departLane="random" departPos="522.24" departSpeed="max" from="-53" to="-29#1"/>
    <trip id="69" type="passenger" depart="60.50" departLane="random" departPos="38.18" departSpeed="max" from="58" to="-58"/>
    <trip id="70" type="passenger" depart="64.25" departLane="random" departPos="9.26" departSpeed="max" from="68" to="-51"/>
    <trip id="71" type="passenger" depart="66.00" departLane="random" departPos="2.35" departSpeed="max" from="-58" to="-30"/>
    <trip id="72" type="passenger" depart="68.00" departLane="random" departPos="56.18" departSpeed="max" from="-16" to="-28"/>
    <trip id="73" type="passenger" depart="68.00" departLane="random" departPos="8.77" departSpeed="max" from="5" to="-50"/>
    <trip id="74" type="passenger" depart="69.25" departLane="random" departPos="19.99" departSpeed="max" from="5" to="-13"/>
    <trip id="75" type="passenger" depart="70.75" departLane="random" departPos="59.07" departSpeed="max" from="-30" to="-33"/>
    <trip id="76" type="passenger" depart="70.75" departLane="random" departPos="16.07" departSpeed="max" from="4" to="-48#1"/>
    <trip id="77" type="passenger" depart="72.00" departLane="random" departPos="16.54" departSpeed="max" from="-13" to="-52#1"/>
    <trip id="78" type="passenger" depart="75.50" departLane="random" departPos="4.48" departSpeed="max" from="-10" to="-51"/>
    <trip id="79" type="passenger" depart="76.25" departLane="random" departPos="37.68" departSpeed="max" from="-32" to="-48#1"/>
    <trip id="80" type="passenger" depart="76.25" departLane="random" departPos="12.20" departSpeed="max" from="-46" to="20"/>
    <trip id="81" type="passenger" depart="76.75" departLane="random" departPos="14.81" departSpeed="max" from="-32" to="-15#1"/>
    <trip id="82" type="passenger" depart="77.00" departLane="random" departPos="13.00" departSpeed="max" from="-32" to="-46"/>
    <trip id="83" type="passenger" depart="77.50" departLane="random" departPos="90.05" departSpeed="max" from="4" to="-14"/>
    <trip id="84" type="passenger" depart="79.00" departLane="random" departPos="22.62" departSpeed="max" from="-13" to="-48#0"/>
    <trip id="85" type="passenger" depart="79.25" departLane="random" departPos="10.14" departSpeed="max" from="-55" to="-29#0"/>
    <trip id="86" type="passenger" depart="79.50" departLane="random" departPos="6.19" departSpeed="max" from="-48#1" to="-29#1"/>
    <trip id="87" type="passenger" depart="79.50" departLane="random" departPos="2.22" departSpeed="max" from="-34" to="-38"/>
    <trip id="88" type="passenger" depart="80.75" departLane="random" departPos="58.81" departSpeed="max" from="-53" to="-35"/>
    <trip id="89" type="passenger" depart="81.00" departLane="random" departPos="113.62" departSpeed="max" from="-49" to="-46"/>
    <trip id="90" type="passenger" depart="81.50" departLane="random" departPos="15.01" departSpeed="max" from="-30" to="-35"/>
    <trip id="91" type="passenger" depart="82.25" departLane="random" departPos="13.64" departSpeed="max" from="22#1" to="57"/>
    <trip id="92" type="passenger" depart="83.00" departLane="random" departPos="14.37" departSpeed="max" from="-54" to="-52#1"/>
    <trip id="93" type="passenger" depart="84.00" departLane="random" departPos="11.71" departSpeed="max" from="-46" to="-52#0"/>
    <trip id="94" type="passenger" depart="86.75" departLane="random" departPos="44.31" departSpeed="max" from="-30" to="-49"/>
    <trip id="95" type="passenger" depart="87.25" departLane="random" departPos="11.62" departSpeed="max" from="-1" to="-48#0"/>
    <trip id="96" type="passenger" depart="89.25" departLane="random" departPos="18.31" departSpeed="max" from="-33" to="-48#0"/>
    <trip id="97" type="passenger" depart="90.75" departLane="random" departPos="57.16" departSpeed="max" from="54" to="57"/>
    <trip id="98" type="passenger" depart="93.50" departLane="random" departPos="6.81" departSpeed="max" from="4" to="-46"/>
    <trip id="99" type="passenger" depart="94.00" departLane="random" departPos="10.06" departSpeed="max" from="68" to="1"/>
    <trip id="100" type="passenger" depart="97.00" departLane="random" departPos="11.00" departSpeed="max" from="-46" to="-41"/>
    <trip id="101" type="passenger" depart="98.00" departLane="random" departPos="54.71" departSpeed="max" from="-8" to="-15#1"/>
    <trip id="102" type="passenger" depart="99.00" departLane="random" departPos="8.03" departSpeed="max" from="-15#0" to="20"/>
    <trip id="103" type="passenger" depart="101.50" departLane="random" departPos="3.75" departSpeed="max" from="-41" to="-30"/>
    <trip id="104" type="passenger" depart="102.00" departLane="random" departPos="1.04" departSpeed="max" from="-32" to="68"/>
    <trip id="105" type="passenger" depart="102.75" departLane="random" departPos="14.23" departSpeed="max" from="-70" to="-28"/>
    <trip id="106" type="passenger" depart="105.25" departLane="random" departPos="516.85" departSpeed="max" from="-53" to="-54"/>
    <trip id="107" type="passenger" depart="105.50" departLane="random" departPos="105.07" departSpeed="max" from="-49" to="-19"/>
    <trip id="108" type="passenger" depart="106.50" departLane="random" departPos="11.91" departSpeed="max" from="-29#0" to="33"/>
    <trip id="109" type="passenger" depart="107.25" departLane="random" departPos="43.38" departSpeed="max" from="0" to="-1"/>
    <trip id="110" type="passenger" depart="107.50" departLane="random" departPos="313.19" departSpeed="max" from="-40" to="-8"/>
    <trip id="111" type="passenger" depart="109.00" departLane="random" departPos="37.56" departSpeed="max" from="-36" to="20"/>
    <trip id="112" type="passenger" depart="110.50" departLane="random" departPos="9.17" departSpeed="max" from="-58" to="-54"/>
    <trip id="113" type="passenger" depart="111.25" departLane="random" departPos="10.40" departSpeed="max" from="-70" to="-58"/>
    <trip id="114" type="passenger" depart="111.50" departLane="random" departPos="56.93" departSpeed="max" from="54" to="-51"/>
    <trip id="115" type="passenger" depart="112.50" departLane="random" departPos="19.34" departSpeed="max" from="-39" to="-13"/>
    <trip id="116" type="passenger" depart="115.75" departLane="random" departPos="54.76" departSpeed="max" from="-49" to="-13"/>
    <trip id="117" type="passenger" depart="115.75" departLane="random" departPos="1.24" departSpeed="max" from="-62" to="0"/>
    <trip id="118" type="passenger" depart="117.00" departLane="random" departPos="10.95" departSpeed="max" from="22#0" to="-19"/>
    <trip id="119" type="passenger" depart="117.25" departLane="random" departPos="56.73" departSpeed="max" from="-52#1" to="-62"/>
    <trip id="120" type="passenger" depart="118.25" departLane="random" departPos="201.93" departSpeed="max" from="20" to="33"/>
    <trip id="121" type="passenger" depart="119.00" departLane="random" departPos="92.07" departSpeed="max" from="20" to="22#0"/>
    <trip id="122" type="passenger" depart="120.00" departLane="random" departPos="65.09" departSpeed="max" from="4" to="-51"/>
    <trip id="123" type="passenger" depart="120.00" departLane="random" departPos="47.34" departSpeed="max" from="-13" to="-40"/>
    <trip id="124" type="passenger" depart="120.25" departLane="random" departPos="1.35" departSpeed="max" from="-51" to="24"/>
    <trip id="125" type="passenger" depart="120.25" departLane="random" departPos="12.49" departSpeed="max" from="-52#0" to="24"/>
    <trip id="126" type="passenger" depart="120.75" departLane="random" departPos="11.61" departSpeed="max" from="-48#1" to="-39"/>
    <trip id="127" type="passenger" depart="123.25" departLane="random" departPos="97.56" departSpeed="max" from="-8" to="58"/>
    <trip id="128" type="passenger" depart="125.25" departLane="random" departPos="15.00" departSpeed="max" from="-29#1" to="33"/>
    <trip id="129" type="passenger" depart="125.50" departLane="random" departPos="10.01" departSpeed="max" from="-41" to="-29#0"/>
    <trip id="130" type="passenger" depart="127.00" departLane="random" departPos="1.30" departSpeed="max" from="-15#0" to="-28"/>
    <trip id="131" type="passenger" depart="127.00" departLane="random" departPos="12.01" departSpeed="max" from="-19" to="-28"/>
    <trip id="132" type="passenger" depart="127.00" departLane="random" departPos="11.31" departSpeed="max" from="57" to="-10"/>
    <trip id="133" type="passenger" depart="127.25" departLane="random" departPos="14.68" departSpeed="max" from="-70" to="54"/>
    <trip id="134" type="passenger" depart="127.75" departLane="random" departPos="0.29" departSpeed="max" from="-46" to="1"/>
    <trip id="135" type="passenger" depart="127.75" departLane="random" departPos="137.78" departSpeed="max" from="-29#1" to="-10"/>
    <trip id="136" type="passenger" depart="128.25" departLane="random" departPos="21.76" departSpeed="max" from="26" to="-52#0"/>
    <trip id="137" type="passenger" depart="129.00" departLane="random" departPos="49.22" departSpeed="max" from="-54" to="-62"/>
    <trip id="138" type="passenger" depart="130.50" departLane="random" departPos="53.07" departSpeed="max" from="-50" to="-62"/>
    <trip id="139" type="passenger" depart="130.50" departLane="random" departPos="43.64" departSpeed="max" from="-52#1" to="-48#1"/>
    <trip id="140" type="passenger" depart="132.00" departLane="random" departPos="121.47" departSpeed="max" from="4" to="-36"/>
    <trip id="141" type="passenger" depart="132.75" departLane="random" departPos="18.73" departSpeed="max" from="-32" to="-40"/>
    <trip id="142" type="passenger" depart="132.75" departLane="random" departPos="18.43" departSpeed="max" from="26" to="-28"/>
    <trip id="143" type="passenger" depart="132.75" departLane="random" departPos="4.37" departSpeed="max" from="57" to="-58"/>
    <trip id="144" type="passenger" depart="133.00" departLane="random" departPos="2.44" departSpeed="max" from="-52#0" to="-29#0"/>
    <trip id="145" type="passenger" depart="133.50" departLane="random" departPos="54.94" departSpeed="max" from="0" to="4"/>
    <trip id="146" type="passenger" depart="133.75" departLane="random" departPos="14.09" departSpeed="max" from="-28" to="-16"/>
    <trip id="147" type="passenger" depart="137.25" departLane="random" departPos="23.13" departSpeed="max" from="-54" to="-48#0"/>
    <trip id="148" type="passenger" depart="137.25" departLane="random" departPos="63.73" departSpeed="max" from="-30" to="0"/>
    <trip id="149" type="passenger" depart="137.25" departLane="random" departPos="19.84" departSpeed="max" from="58" to="-19"/>
    <trip id="150" type="passenger" depart="138.00" departLane="random" departPos="5.38" departSpeed="max" from="58" to="-52#0"/>
    <trip id="151" type="passenger" depart="141.25" departLane="random" departPos="48.59" departSpeed="max" from="-10" to="54"/>
    <trip id="152" type="passenger" depart="141.75" departLane="random" departPos="4.24" departSpeed="max" from="57" to="54"/>
    <trip id="153" type="passenger" depart="142.00" departLane="random" departPos="22.45" departSpeed="max" from="58" to="-52#1"/>
    <trip id="154" type="passenger" depart="144.00" departLane="random" departPos="13.04" departSpeed="max" from="-59" to="-35"/>
    <trip id="155" type="passenger" depart="144.00" departLane="random" departPos="43.99" departSpeed="max" from="58" to="20"/>
    <trip id="156" type="passenger" depart="146.50" departLane="random" departPos="22.57" departSpeed="max" from="-70" to="23"/>
    <trip id="157" type="passenger" depart="146.75" departLane="random" departPos="6.17" departSpeed="max" from="5" to="-38"/>
    <trip id="158" type="passenger" depart="147.75" departLane="random" departPos="101.31" departSpeed="max" from="-49" to="-13"/>
    <trip id="159" type="passenger" depart="147.75" departLane="random" departPos="41.11" departSpeed="max" from="-16" to="-10"/>
    <trip id="160" type="passenger" depart="150.25" departLane="random" departPos="31.25" departSpeed="max" from="-30" to="-39"/>
    <trip id="161" type="passenger" depart="151.75" departLane="random" departPos="14.30" departSpeed="max" from="-55" to="-29#1"/>
    <trip id="162" type="passenger" depart="151.75" departLane="random" departPos="2.95" departSpeed="max" from="22#1" to="22#0"/>
    <trip id="163" type="passenger" depart="152.75" departLane="random" departPos="7.84" departSpeed="max" from="-15#0" to="26"/>
    <trip id="164" type="passenger" depart="153.75" departLane="random" departPos="10.71" departSpeed="max" from="57" to="58"/>
    <trip id="165" type="passenger" depart="154.25" departLane="random" departPos="51.21" departSpeed="max" from="-50" to="-55"/>
    <trip id="166" type="passenger" depart="154.50" departLane="random" departPos="2.18" departSpeed="max" from="-14" to="-70"/>
    <trip id="167" type="passenger" depart="154.75" departLane="random" departPos="26.70" departSpeed="max" from="0" to="-48#0"/>
    <trip id="168" type="passenger" depart="154.75" departLane="random" departPos="4.10" departSpeed="max" from="-1" to="-38"/>
    <trip id="169" type="passenger" depart="155.50" departLane="random" departPos="3.72" departSpeed="max" from="-48#1" to="-53"/>
    <trip id="170" type="passenger" depart="155.75" departLane="random" departPos="34.04" departSpeed="max" from="33" to="20"/>
    <trip id="171" type="passenger" depart="156.00" departLane="random" departPos="116.50" departSpeed="max" from="-48#0" to="-28"/>
    <trip id="172" type="passenger" depart="156.25" departLane="random" departPos="63.74" departSpeed="max" from="4" to="1"/>
    <trip id="173" type="passenger" depart="157.00" departLane="random" departPos="9.31" departSpeed="max" from="26" to="-55"/>
    <trip id="174" type="passenger" depart="158.75" departLane="random" departPos="28.27" departSpeed="max" from="-36" to="68"/>
    <trip id="175" type="passenger" depart="159.25" departLane="random" departPos="85.09" departSpeed="max" from="-38" to="54"/>
    <trip id="176" type="passenger" depart="160.00" departLane="random" departPos="376.83" departSpeed="max" from="-40" to="-1"/>
    <trip id="177" type="passenger" depart="161.25" departLane="random" departPos="31.95" departSpeed="max" from="-34" to="-29#0"/>
    <trip id="178" type="passenger" depart="161.75" departLane="random" departPos="105.47" departSpeed="max" from="-53" to="5"/>
    <trip id="179" type="passenger" depart="162.00" departLane="random" departPos="17.50" departSpeed="max" from="24" to="-35"/>
    <trip id="180" type="passenger" depart="162.75" departLane="random" departPos="20.88" departSpeed="max" from="24" to="-36"/>
    <trip id="181" type="passenger" depart="163.25" departLane="random" departPos="22.48" departSpeed="max" from="-50" to="1"/>
    <trip id="182" type="passenger" depart="163.75" departLane="random" departPos="4.52" departSpeed="max" from="22#1" to="-28"/>
    <trip id="183" type="passenger" depart="163.75" departLane="random" departPos="1.81" departSpeed="max" from="-59" to="-59"/>
    <trip id="184" type="passenger" depart="163.75" departLane="random" departPos="0.40" departSpeed="max" from="-62" to="-35"/>
    <trip id="185" type="passenger" depart="164.75" departLane="random" departPos="4.38" departSpeed="max" from="4" to="-59"/>
    <trip id="186" type="passenger" depart="164.75" departLane="random" departPos="31.74" departSpeed="max" from="22#0" to="-50"/>
    <trip id="187" type="passenger" depart="165.00" departLane="random" departPos="13.05" departSpeed="max" from="-55" to="-39"/>
    <trip id="188" type="passenger" depart="168.00" departLane="random" departPos="109.77" departSpeed="max" from="-48#0" to="-33"/>
    <trip id="189" type="passenger" depart="168.25" departLane="random" departPos="16.51" departSpeed="max" from="58" to="24"/>
    <trip id="190" type="passenger" depart="170.00" departLane="random" departPos="3.57" departSpeed="max" from="1" to="-1"/>
    <trip id="191" type="passenger" depart="171.00" departLane="random" departPos="28.84" departSpeed="max" from="-54" to="-19"/>
    <trip id="192" type="passenger" depart="171.50" departLane="random" departPos="5.84" departSpeed="max" from="-8" to="-39"/>
    <trip id="193" type="passenger" depart="172.50" departLane="random" departPos="48.23" departSpeed="max" from="-39" to="-59"/>
    <trip id="194" type="passenger" depart="173.50" departLane="random" departPos="66.86" departSpeed="max" from="-13" to="-35"/>
    <trip id="195" type="passenger" depart="173.75" departLane="random" departPos="7.27" departSpeed="max" from="-15#0" to="-29#1"/>
    <trip id="196" type="passenger" depart="173.75" departLane="random" departPos="5.47" departSpeed="max" from="22#0" to="-55"/>
    <trip id="197" type="passenger" depart="174.00" departLane="random" departPos="168.58" departSpeed="max" from="-37" to="-37"/>
    <trip id="198" type="passenger" depart="174.50" departLane="random" departPos="1.58" departSpeed="max" from="23" to="-34"/>
    <trip id="199" type="passenger" depart="174.75" departLane="random" departPos="17.75" departSpeed="max" from="-39" to="-52#0"/>
    <trip id="200" type="passenger" depart="178.25" departLane="random" departPos="16.55" departSpeed="max" from="-19" to="-19"/>
    <trip id="201" type="passenger" depart="178.50" departLane="random" departPos="13.87" departSpeed="max" from="22#1" to="-46"/>
    <trip id="202" type="passenger" depart="179.00" departLane="random" departPos="7.14" departSpeed="max" from="-28" to="-30"/>
    <trip id="203" type="passenger" depart="179.50" departLane="random" departPos="19.93" departSpeed="max" from="24" to="22#1"/>
    <trip id="204" type="passenger" depart="180.50" departLane="random" departPos="93.47" departSpeed="max" from="-8" to="57"/>
    <trip id="205" type="passenger" depart="180.75" departLane="random" departPos="55.50" departSpeed="max" from="0" to="-8"/>
    <trip id="206" type="passenger" depart="181.25" departLane="random" departPos="1.58" departSpeed="max" from="-46" to="5"/>
    <trip id="207" type="passenger" depart="181.25" departLane="random" departPos="20.48" departSpeed="max" from="-19" to="-1"/>
    <trip id="208" type="passenger" depart="183.25" departLane="random" departPos="48.82" departSpeed="max" from="-8" to="-19"/>
    <trip id="209" type="passenger" depart="185.00" departLane="random" departPos="19.35" departSpeed="max" from="68" to="-52#0"/>
    <trip id="210" type="passenger" depart="185.25" departLane="random" departPos="14.14" departSpeed="max" from="-29#0" to="-36"/>
    <trip id="211" type="passenger" depart="185.25" departLane="random" departPos="46.22" departSpeed="max" from="-16" to="-16"/>
    <trip id="212" type="passenger" depart="186.25" departLane="random" departPos="23.18" departSpeed="max" from="-8" to="-36"/>
    <trip id="213" type="passenger" depart="186.25" departLane="random" departPos="33.76" departSpeed="max" from="58" to="-46"/>
    <trip id="214" type="passenger" depart="186.25" departLane="random" departPos="32.24" departSpeed="max" from="-16" to="-10"/>
    <trip id="215" type="passenger" depart="187.00" departLane="random" departPos="5.25" departSpeed="max" from="-48#0" to="-29#1"/>
    <trip id="216" type="passenger" depart="187.25" departLane="random" departPos="1.04" departSpeed="max" from="-62" to="-55"/>