<?xml version="1.0" encoding="UTF-8"?>

<!-- generated on 2026-06-25 09:48:06.047674 by Eclipse SUMO randomTrips.py UNKNOWN
<configuration>
    <net-file value="/home/umd-user/Downloads/Planning module/opencda/planning_module/opencda_scenario/assets/Town10HD_Opt/Town10HD_Opt.net.xml"/>
    <output-trip-file value="/home/umd-user/Downloads/Planning module/opencda/planning_module/opencda_scenario/assets/Town10HD_Opt/Town10HD_Opt.trips.xml"/>
    <route-file value="/home/umd-user/Downloads/Planning module/opencda/planning_module/opencda_scenario/assets/Town10HD_Opt/Town10HD_Opt.rou.xml"/>
    <trip-attributes value="departLane=&quot;random&quot; departSpeed=&quot;max&quot;"/>
    <vehicle-class value="passenger"/>
    <random-departpos value="True"/>
    <fringe-factor value="8.0"/>
    <period value="0.75"/>
    <random-depart value="True"/>
</configuration>
-->

<!-- generated on 2026-06-25T09:48:05.987666-05:00 by Eclipse SUMO duarouter 1.25.0
<duarouterConfiguration xmlns:xsi="http://www.w3.org/2001/XMLSchema-instance" xsi:noNamespaceSchemaLocation="http://sumo.dlr.de/xsd/duarouterConfiguration.xsd">

    <input>
        <net-file value="/home/umd-user/Downloads/Planning module/opencda/planning_module/opencda_scenario/assets/Town10HD_Opt/Town10HD_Opt.net.xml"/>
        <route-files value="/home/umd-user/Downloads/Planning module/opencda/planning_module/opencda_scenario/assets/Town10HD_Opt/Town10HD_Opt.trips.xml"/>
    </input>

    <output>
        <output-file value="/home/umd-user/Downloads/Planning module/opencda/planning_module/opencda_scenario/assets/Town10HD_Opt/Town10HD_Opt.rou.xml"/>
        <alternatives-output value="NUL"/>
    </output>

    <time>
        <begin value="0"/>
        <end value="3600.0"/>
    </time>

    <report>
        <no-warnings value="true"/>
        <ignore-errors value="true"/>
        <no-step-log value="true"/>
    </report>

</duarouterConfiguration>
-->

<routes xmlns:xsi="http://www.w3.org/2001/XMLSchema-instance" xsi:noNamespaceSchemaLocation="http://sumo.dlr.de/xsd/routes_file.xsd">
    <vType id="passenger" vClass="passenger"/>
    <vehicle id="0" type="passenger" depart="0.00" departLane="random" departPos="0.21" departSpeed="max">
        <route edges="-21 2 -11"/>
    </vehicle>
    <vehicle id="1" type="passenger" depart="0.25" departLane="random" departPos="27.67" departSpeed="max">
        <route edges="-12 -14 -20 -21 2 1 -5"/>
    </vehicle>
    <vehicle id="2" type="passenger" depart="0.50" departLane="random" departPos="6.05" departSpeed="max">
        <route edges="14 13 -5 -6 -22"/>
    </vehicle>
    <vehicle id="3" type="passenger" depart="1.00" departLane="random" departPos="32.69" departSpeed="max">
        <route edges="-20 -21 2 -11"/>
    </vehicle>
    <vehicle id="4" type="passenger" depart="1.00" departLane="random" departPos="47.09" departSpeed="max">
        <route edges="-12 -14 -20 9 11"/>
    </vehicle>
    <vehicle id="5" type="passenger" depart="2.50" departLane="random" departPos="0.99" departSpeed="max">
        <route edges="-2 -3 -22 -20 9 11"/>
    </vehicle>
    <vehicle id="6" type="passenger" depart="2.75" departLane="random" departPos="58.68" departSpeed="max">
        <route edges="6 -18 -20 -21 2 1 -13"/>
    </vehicle>
    <vehicle id="7" type="passenger" depart="4.50" departLane="random" departPos="119.66" departSpeed="max">
        <route edges="-3 -22 -20 -21 2"/>
    </vehicle>
    <vehicle id="8" type="passenger" depart="4.75" departLane="random" departPos="5.85" departSpeed="max">
        <route edges="20 -15 6 -18"/>
    </vehicle>
    <vehicle id="9" type="passenger" depart="6.00" departLane="random" departPos="14.43" departSpeed="max">
        <route edges="-18 -20 -21"/>
    </vehicle>
    <vehicle id="10" type="passenger" depart="6.50" departLane="random" departPos="30.18" departSpeed="max">
        <route edges="-13 -14 19 -6"/>
    </vehicle>
    <vehicle id="11" type="passenger" depart="10.50" departLane="random" departPos="5.45" departSpeed="max">
        <route edges="2 1 -5 -18 14"/>
    </vehicle>
    <vehicle id="12" type="passenger" depart="11.00" departLane="random" departPos="6.37" departSpeed="max">
        <route edges="2 -11 -12 -14 -20"/>
    </vehicle>
    <vehicle id="13" type="passenger" depart="11.25" departLane="random" departPos="20.51" departSpeed="max">
        <route edges="-20 9 -12"/>
    </vehicle>
    <vehicle id="14" type="passenger" depart="14.50" departLane="random" departPos="6.38" departSpeed="max">
        <route edges="9 -12 -14 -20"/>
    </vehicle>
    <vehicle id="15" type="passenger" depart="14.50" departLane="random" departPos="40.50" departSpeed="max">
        <route edges="-15 -7 2 -11 -12"/>
    </vehicle>
    <vehicle id="16" type="passenger" depart="14.75" departLane="random" departPos="14.10" departSpeed="max">
        <route edges="-18 -20 -21 -3"/>
    </vehicle>
    <vehicle id="17" type="passenger" depart="15.25" departLane="random" departPos="3.60" departSpeed="max">
        <route edges="-14 -20 -21 2 1"/>
    </vehicle>
    <vehicle id="18" type="passenger" depart="16.75" departLane="random" departPos="23.26" departSpeed="max">
        <route edges="12 11 1 -13"/>
    </vehicle>
    <vehicle id="19" type="passenger" depart="17.00" departLane="random" departPos="3.72" departSpeed="max">
        <route edges="-20 -21 2 -11"/>
    </vehicle>
    <vehicle id="20" type="passenger" depart="19.75" departLane="random" departPos="0.41" departSpeed="max">
        <route edges="19 -6 -7 2"/>
    </vehicle>
    <vehicle id="21" type="passenger" depart="20.75" departLane="random" departPos="0.14" departSpeed="max">
        <route edges="-7 21 20 14 13"/>
    </vehicle>
    <vehicle id="22" type="passenger" depart="21.00" departLane="random" departPos="7.99" departSpeed="max">
        <route edges="-12 -14 -20 -21 -3"/>
    </vehicle>
    <vehicle id="23" type="passenger" depart="21.50" departLane="random" departPos="0.15" departSpeed="max">
        <route edges="-22 -20 -21 -3"/>
    </vehicle>
    <vehicle id="24" type="passenger" depart="26.75" departLane="random" departPos="3.99" departSpeed="max">
        <route edges="14 13 -5 -18 -20 -21 2"/>
    </vehicle>
    <vehicle id="25" type="passenger" depart="27.00" departLane="random" departPos="78.66" departSpeed="max">
        <route edges="-5 -6 -22 19"/>
    </vehicle>
    <vehicle id="26" type="passenger" depart="27.50" departLane="random" departPos="20.25" departSpeed="max">
        <route edges="-12 -14 19 5 4 -2"/>
    </vehicle>
    <vehicle id="27" type="passenger" depart="29.00" departLane="random" departPos="1.01" departSpeed="max">
        <route edges="14 13 -5 -18 -20 -21 2"/>
    </vehicle>
    <vehicle id="28" type="passenger" depart="29.50" departLane="random" departPos="2.62" departSpeed="max">
        <route edges="-9 -21 2 -11 -12 -14 -20 9"/>
    </vehicle>
    <vehicle id="29" type="passenger" depart="29.75" departLane="random" departPos="24.19" departSpeed="max">
        <route edges="-21 2 -11 -12"/>
    </vehicle>
    <vehicle id="30" type="passenger" depart="31.75" departLane="random" departPos="25.87" departSpeed="max">
        <route edges="13 -5 -18 -20 -21 -3"/>
    </vehicle>
    <vehicle id="31" type="passenger" depart="32.25" departLane="random" departPos="31.56" departSpeed="max">
        <route edges="-22 19 -6 -7 21"/>
    </vehicle>
    <vehicle id="32" type="passenger" depart="33.50" departLane="random" departPos="13.45" departSpeed="max">
        <route edges="-21 2 1 -5 -18"/>
    </vehicle>
    <vehicle id="33" type="passenger" depart="33.50" departLane="random" departPos="2.35" departSpeed="max">
        <route edges="9 -12 -14 19 -6 -22 14 13"/>
    </vehicle>
    <vehicle id="34" type="passenger" depart="34.00" departLane="random" departPos="127.22" departSpeed="max">
        <route edges="-3 -22 -20 -21 2 1 -13"/>
    </vehicle>
    <vehicle id="35" type="passenger" depart="34.75" departLane="random" departPos="70.74" departSpeed="max">
        <route edges="-7 21 20 19 5 4"/>
    </vehicle>
    <vehicle id="36" type="passenger" depart="36.00" departLane="random" departPos="0.55" departSpeed="max">
        <route edges="-18 -20 -21 2 -11"/>
    </vehicle>
    <vehicle id="37" type="passenger" depart="36.75" departLane="random" departPos="3.05" departSpeed="max">
        <route edges="9 -12 -14 19 5 4 -2"/>
    </vehicle>
    <vehicle id="38" type="passenger" depart="36.75" departLane="random" departPos="26.37" departSpeed="max">
        <route edges="20 14 13"/>
    </vehicle>
    <vehicle id="39" type="passenger" depart="37.50" departLane="random" departPos="7.59" departSpeed="max">
        <route edges="9 -12 -14 -15 -7 21 20"/>
    </vehicle>
    <vehicle id="40" type="passenger" depart="37.75" departLane="random" departPos="8.62" departSpeed="max">
        <route edges="-11 -12 -14 19 -6 -22"/>
    </vehicle>
    <vehicle id="41" type="passenger" depart="38.50" departLane="random" departPos="4.63" departSpeed="max">
        <route edges="19 -6 -22 14 13 -5"/>
    </vehicle>
    <vehicle id="42" type="passenger" depart="38.75" departLane="random" departPos="28.50" departSpeed="max">
        <route edges="13 -5 -18 -20 -21 2 -11 -9"/>
    </vehicle>
    <vehicle id="43" type="passenger" depart="39.00" departLane="random" departPos="130.54" departSpeed="max">
        <route edges="4 -2 21 20 -15 -7 2 1"/>
    </vehicle>
    <vehicle id="44" type="passenger" depart="39.25" departLane="random" departPos="6.00" departSpeed="max">
        <route edges="-2 21 20 -15 -7 2 1 -13"/>
    </vehicle>
    <vehicle id="45" type="passenger" depart="39.50" departLane="random" departPos="146.52" departSpeed="max">
        <route edges="-7 2 -11"/>
    </vehicle>
    <vehicle id="46" type="passenger" depart="41.00" departLane="random" departPos="34.18" departSpeed="max">
        <route edges="12 11 1 -13 -14 19 5 4 -2"/>
    </vehicle>
    <vehicle id="47" type="passenger" depart="43.25" departLane="random" departPos="23.08" departSpeed="max">
        <route edges="-11 -9 -21 2 1 -13 12"/>
    </vehicle>
    <vehicle id="48" type="passenger" depart="43.50" departLane="random" departPos="32.26" departSpeed="max">
        <route edges="20 -15 -7 2 1 -13"/>
    </vehicle>
    <vehicle id="49" type="passenger" depart="46.00" departLane="random" departPos="19.83" departSpeed="max">
        <route edges="21 20 -15 -7 2 -11 -12"/>
    </vehicle>
    <vehicle id="50" type="passenger" depart="46.25" departLane="random" departPos="5.13" departSpeed="max">
        <route edges="-14 -20 9 11"/>
    </vehicle>
    <vehicle id="51" type="passenger" depart="46.50" departLane="random" departPos="17.77" departSpeed="max">
        <route edges="-12 -14 -15 6 -18"/>
    </vehicle>
    <vehicle id="52" type="passenger" depart="47.75" departLane="random" departPos="9.75" departSpeed="max">
        <route edges="21 20 19"/>
    </vehicle>
    <vehicle id="53" type="passenger" depart="48.00" departLane="random" departPos="4.55" departSpeed="max">
        <route edges="-14 19 -6 -22 14"/>
    </vehicle>
    <vehicle id="54" type="passenger" depart="48.50" departLane="random" departPos="8.85" departSpeed="max">
        <route edges="-22 -20 9"/>
    </vehicle>
    <vehicle id="55" type="passenger" depart="48.75" departLane="random" departPos="3.33" departSpeed="max">
        <route edges="-12 -14 -15"/>
    </vehicle>
    <vehicle id="56" type="passenger" depart="49.25" departLane="random" departPos="8.87" departSpeed="max">
        <route edges="-20 -21 2"/>
    </vehicle>
    <vehicle id="57" type="passenger" depart="50.25" departLane="random" departPos="45.00" departSpeed="max">
        <route edges="-3 6 -18 -15"/>
    </vehicle>
    <vehicle id="58" type="passenger" depart="50.50" departLane="random" departPos="20.18" departSpeed="max">
        <route edges="11 1 -13 -14"/>
    </vehicle>
    <vehicle id="59" type="passenger" depart="51.25" departLane="random" departPos="8.31" departSpeed="max">
        <route edges="12 -9 -21 -3"/>
    </vehicle>
    <vehicle id="60" type="passenger" depart="51.25" departLane="random" departPos="1.27" departSpeed="max">
        <route edges="4 -2 21 20 -15 -7 2 1 -13"/>
    </vehicle>
    <vehicle id="61" type="passenger" depart="52.75" departLane="random" departPos="69.31" departSpeed="max">
        <route edges="5 4 -2 21 20 14"/>
    </vehicle>
    <vehicle id="62" type="passenger" depart="53.50" departLane="random" departPos="41.81" departSpeed="max">
        <route edges="-20 -21 -3 -22 14"/>
    </vehicle>
    <vehicle id="63" type="passenger" depart="53.50" departLane="random" departPos="23.11" departSpeed="max">
        <route edges="-7 2 -11 -12 -14"/>
    </vehicle>
    <vehicle id="64" type="passenger" depart="56.50" departLane="random" departPos="12.63" departSpeed="max">
        <route edges="-20 9 -12 -14 19 -6"/>
    </vehicle>
    <vehicle id="65" type="passenger" depart="56.75" departLane="random" departPos="24.66" departSpeed="max">
        <route edges="-15 6 -18 14"/>
    </vehicle>
    <vehicle id="66" type="passenger" depart="57.25" departLane="random" departPos="1.92" departSpeed="max">
        <route edges="19 -6 -7 2 1 -13 12"/>
    </vehicle>
    <vehicle id="67" type="passenger" depart="57.75" departLane="random" departPos="10.16" departSpeed="max">
        <route edges="21 20 19 -6 -22 -20 -21"/>
    </vehicle>
    <vehicle id="68" type="passenger" depart="60.25" departLane="random" departPos="150.89" departSpeed="max">
        <route edges="1 -5 -18"/>
    </vehicle>
    <vehicle id="69" type="passenger" depart="60.50" departLane="random" departPos="6.77" departSpeed="max">
        <route edges="9 11 1 -13 12"/>
    </vehicle>
    <vehicle id="70" type="passenger" depart="64.25" departLane="random" departPos="3.64" departSpeed="max">
        <route edges="9 -12 -14 -20 -21 2 -11 -9"/>
    </vehicle>
    <vehicle id="71" type="passenger" depart="66.00" departLane="random" departPos="2.80" departSpeed="max">
        <route edges="12 11 1 -5 -18"/>
    </vehicle>
    <vehicle id="72" type="passenger" depart="68.00" departLane="random" departPos="7.04" departSpeed="max">
        <route edges="-14 -15"/>
    </vehicle>
    <vehicle id="73" type="passenger" depart="68.00" departLane="random" departPos="18.65" departSpeed="max">
        <route edges="5 4 -2 21 20 -15 -7"/>
    </vehicle>
    <vehicle id="74" type="passenger" depart="69.25" departLane="random" departPos="42.51" departSpeed="max">
        <route edges="5 4 -2 -3 -22 -20 9 -12"/>
    </vehicle>
    <vehicle id="75" type="passenger" depart="70.75" departLane="random" departPos="13.48" departSpeed="max">
        <route edges="-18 -20"/>
    </vehicle>
    <vehicle id="76" type="passenger" depart="70.75" departLane="random" departPos="18.39" departSpeed="max">
        <route edges="4 -2 21 20 19 -6"/>
    </vehicle>
    <vehicle id="77" type="passenger" depart="72.00" departLane="random" departPos="8.33" departSpeed="max">
        <route edges="-12 -14 -20 -21 2 1"/>
    </vehicle>
    <vehicle id="78" type="passenger" depart="75.50" departLane="random" departPos="1.81" departSpeed="max">
        <route edges="-11 -9"/>
    </vehicle>
    <vehicle id="79" type="passenger" depart="76.25" departLane="random" departPos="4.73" departSpeed="max">
        <route edges="-2 21 20 19 -6"/>
    </vehicle>
    <vehicle id="80" type="passenger" depart="76.25" departLane="random" departPos="87.00" departSpeed="max">
        <route edges="-5 -6 -22 19"/>
    </vehicle>
    <vehicle id="81" type="passenger" depart="76.75" departLane="random" departPos="1.86" departSpeed="max">
        <route edges="-2 -3 -22 -20 9 -12 -14"/>
    </vehicle>
    <vehicle id="82" type="passenger" depart="77.00" departLane="random" departPos="1.63" departSpeed="max">
        <route edges="-2 21 20 14 13 -5"/>
    </vehicle>
    <vehicle id="83" type="passenger" depart="77.50" departLane="random" departPos="103.06" departSpeed="max">
        <route edges="4 -2 21 20 -15 -7 2 1 -13"/>
    </vehicle>
    <vehicle id="84" type="passenger" depart="79.00" departLane="random" departPos="11.39" departSpeed="max">
        <route edges="-12 -14 19 -6"/>
    </vehicle>
    <vehicle id="85" type="passenger" depart="79.25" departLane="random" departPos="19.68" departSpeed="max">
        <route edges="12 11 1 -13 -14 -15"/>
    </vehicle>
    <vehicle id="86" type="passenger" depart="79.50" departLane="random" departPos="26.48" departSpeed="max">
        <route edges="-6 -22 14 13 -5 -18"/>
    </vehicle>
    <vehicle id="87" type="passenger" depart="79.50" departLane="random" departPos="1.69" departSpeed="max">
        <route edges="-20 -21 -3 -22"/>
    </vehicle>
    <vehicle id="88" type="passenger" depart="80.75" departLane="random" departPos="16.99" departSpeed="max">
        <route edges="1 -13 -14 -20"/>
    </vehicle>
    <vehicle id="89" type="passenger" depart="81.00" departLane="random" departPos="122.80" departSpeed="max">
        <route edges="-7 2 1 -5"/>
    </vehicle>
    <vehicle id="90" type="passenger" depart="81.50" departLane="random" departPos="1.28" departSpeed="max">
        <route edges="-2 -3 -22 -20 -21"/>
    </vehicle>
    <vehicle id="91" type="passenger" depart="82.25" departLane="random" departPos="47.80" departSpeed="max">
        <route edges="20 -15 6"/>
    </vehicle>
    <vehicle id="92" type="passenger" depart="83.00" departLane="random" departPos="5.86" departSpeed="max">
        <route edges="11 1"/>
    </vehicle>
    <vehicle id="93" type="passenger" depart="84.00" departLane="random" departPos="83.50" departSpeed="max">
        <route edges="-5 -18 -20 -21 2 -11 -9"/>
    </vehicle>
    <vehicle id="94" type="passenger" depart="86.75" departLane="random" departPos="3.78" departSpeed="max">
        <route edges="-2 21 20 -15 -7"/>
    </vehicle>
    <vehicle id="95" type="passenger" depart="87.25" departLane="random" departPos="22.26" departSpeed="max">
        <route edges="-11 -9 -21 2 1 -5"/>
    </vehicle>
    <vehicle id="96" type="passenger" depart="89.25" departLane="random" departPos="1.81" departSpeed="max">
        <route edges="-2 21 20 19 -6"/>
    </vehicle>
    <vehicle id="97" type="passenger" depart="90.75" departLane="random" departPos="106.66" departSpeed="max">
        <route edges="5 4 -2 -3 6"/>
    </vehicle>
    <vehicle id="98" type="passenger" depart="93.50" departLane="random" departPos="5.16" departSpeed="max">
        <route edges="5 4 -2 21 20 14 13 -5"/>
    </vehicle>
    <vehicle id="99" type="passenger" depart="94.00" departLane="random" departPos="3.96" departSpeed="max">
        <route edges="9 -12 -14 19"/>
    </vehicle>
    <vehicle id="100" type="passenger" depart="97.00" departLane="random" departPos="78.41" departSpeed="max">
        <route edges="-5"/>
    </vehicle>
    <vehicle id="101" type="passenger" depart="98.00" departLane="random" departPos="4.13" departSpeed="max">
        <route edges="14 13 -5 -18 -20 -21 2 1 -13"/>
    </vehicle>
    <vehicle id="102" type="passenger" depart="99.00" departLane="random" departPos="21.02" departSpeed="max">
        <route edges="-13 -14 -20 -21 2"/>
    </vehicle>
    <vehicle id="103" type="passenger" depart="101.50" departLane="random" departPos="34.71" departSpeed="max">
        <route edges="-5 -6 -22 19 5 4 -2"/>
    </vehicle>
    <vehicle id="104" type="passenger" depart="102.00" departLane="random" departPos="0.13" departSpeed="max">
        <route edges="-2 -3 -22 -20 9"/>
    </vehicle>
    <vehicle id="105" type="passenger" depart="102.75" departLane="random" departPos="13.93" departSpeed="max">
        <route edges="13 -5 -18 -15"/>
    </vehicle>
    <vehicle id="106" type="passenger" depart="105.25" departLane="random" departPos="149.33" departSpeed="max">
        <route edges="1 -13 12 11"/>
    </vehicle>
    <vehicle id="107" type="passenger" depart="105.50" departLane="random" departPos="51.92" departSpeed="max">
        <route edges="-6 -22 -20 9 -12 -14"/>
    </vehicle>
    <vehicle id="108" type="passenger" depart="106.50" departLane="random" departPos="13.70" departSpeed="max">
        <route edges="-18 -15 6 5 4"/>
    </vehicle>
    <vehicle id="109" type="passenger" depart="107.25" departLane="random" departPos="5.23" departSpeed="max">
        <route edges="14 13 -5 -18 -20 -21 2 -11"/>
    </vehicle>
    <vehicle id="110" type="passenger" depart="107.50" departLane="random" departPos="98.05" departSpeed="max">
        <route edges="-3 -22 14"/>
    </vehicle>
    <vehicle id="111" type="passenger" depart="109.00" departLane="random" departPos="16.93" departSpeed="max">
        <route edges="-21 2"/>
    </vehicle>
    <vehicle id="112" type="passenger" depart="110.50" departLane="random" departPos="10.91" departSpeed="max">
        <route edges="12 11"/>
    </vehicle>
    <vehicle id="113" type="passenger" depart="111.25" departLane="random" departPos="2.80" departSpeed="max">
        <route edges="14 13 -5 -18 -20 -21 2 1 -13 12"/>
    </vehicle>
    <vehicle id="114" type="passenger" depart="111.50" departLane="random" departPos="88.31" departSpeed="max">
        <route edges="6 -18 -20 -21 2 -11 -9"/>
    </vehicle>
    <vehicle id="115" type="passenger" depart="112.50" departLane="random" departPos="70.72" departSpeed="max">
        <route edges="-3 -22 -20 9 -12"/>
    </vehicle>
    <vehicle id="116" type="passenger" depart="115.75" departLane="random" departPos="59.18" departSpeed="max">
        <route edges="-7 2 -11 -12"/>
    </vehicle>
    <vehicle id="117" type="passenger" depart="115.75" departLane="random" departPos="17.00" departSpeed="max">
        <route edges="13 -5 -18 14"/>
    </vehicle>
    <vehicle id="118" type="passenger" depart="117.00" departLane="random" departPos="2.73" departSpeed="max">
        <route edges="2 -11 -12 -14"/>
    </vehicle>
    <vehicle id="119" type="passenger" depart="117.25" departLane="random" departPos="112.77" departSpeed="max">
        <route edges="1 -5 -18 14 13"/>
    </vehicle>
    <vehicle id="120" type="passenger" depart="118.25" departLane="random" departPos="5.74" departSpeed="max">
        <route edges="2 -11 -12 -14 19 5 4"/>
    </vehicle>
    <vehicle id="121" type="passenger" depart="119.00" departLane="random" departPos="2.61" departSpeed="max">
        <route edges="2"/>
    </vehicle>
    <vehicle id="122" type="passenger" depart="120.00" departLane="random" departPos="49.37" departSpeed="max">
        <route edges="5 4 -2 21 20 -15 -7 2 -11 -9"/>
    </vehicle>
    <vehicle id="123" type="passenger" depart="120.00" departLane="random" departPos="23.83" departSpeed="max">
        <route edges="-12 -14 -20 -21 -3"/>
    </vehicle>
    <vehicle id="124" type="passenger" depart="120.25" departLane="random" departPos="3.69" departSpeed="max">
        <route edges="-9 -21 2 -11 -12 -14 -15 -7 21"/>
    </vehicle>
    <vehicle id="125" type="passenger" depart="120.25" departLane="random" departPos="7.06" departSpeed="max">
        <route edges="-9 -21 2 -11 -12 -14 -15 -7 21"/>
    </vehicle>
    <vehicle id="126" type="passenger" depart="120.75" departLane="random" departPos="49.72" departSpeed="max">
        <route edges="-6 -22 -20 -21 -3"/>
    </vehicle>
    <vehicle id="127" type="passenger" depart="123.25" departLane="random" departPos="7.37" departSpeed="max">
        <route edges="14 13 -5 -18 -20 9"/>
    </vehicle>
    <vehicle id="128" type="passenger" depart="125.25" departLane="random" departPos="1.91" departSpeed="max">
        <route edges="-18 -15 6 5 4"/>
    </vehicle>
    <vehicle id="129" type="passenger" depart="125.50" departLane="random" departPos="176.97" departSpeed="max">
        <route edges="-3 6 -18"/>
    </vehicle>
    <vehicle id="130" type="passenger" depart="127.00" departLane="random" departPos="3.40" departSpeed="max">
        <route edges="-13 -14 -15"/>
    </vehicle>
    <vehicle id="131" type="passenger" depart="127.00" departLane="random" departPos="8.45" departSpeed="max">
        <route edges="-15"/>
    </vehicle>
    <vehicle id="132" type="passenger" depart="127.00" departLane="random" departPos="40.42" departSpeed="max">
        <route edges="6 -18 -20 -21 2 -11"/>
    </vehicle>
    <vehicle id="133" type="passenger" depart="127.25" departLane="random" departPos="3.95" departSpeed="max">
        <route edges="14 13 -5 -18 -15 6"/>
    </vehicle>
    <vehicle id="134" type="passenger" depart="127.75" departLane="random" departPos="2.08" departSpeed="max">
        <route edges="-5 -6 -22 19"/>
    </vehicle>
    <vehicle id="135" type="passenger" depart="127.75" departLane="random" departPos="17.52" departSpeed="max">
        <route edges="-18 -20 -21 2 -11"/>
    </vehicle>
    <vehicle id="136" type="passenger" depart="128.25" departLane="random" departPos="8.15" departSpeed="max">
        <route edges="21 20 -15 -7 2 -11 -9"/>
    </vehicle>
    <vehicle id="137" type="passenger" depart="129.00" departLane="random" departPos="20.07" departSpeed="max">
        <route edges="11 1 -5 -18 14 13"/>
    </vehicle>
    <vehicle id="138" type="passenger" depart="130.50" departLane="random" departPos="85.63" departSpeed="max">
        <route edges="-7 21 20 14 13"/>
    </vehicle>
    <vehicle id="139" type="passenger" depart="130.50" departLane="random" departPos="86.76" departSpeed="max">
        <route edges="1 -5 -6"/>
    </vehicle>
    <vehicle id="140" type="passenger" depart="132.00" departLane="random" departPos="92.13" departSpeed="max">
        <route edges="5 4 -2 -3 -22 -20 -21"/>
    </vehicle>
    <vehicle id="141" type="passenger" depart="132.75" departLane="random" departPos="2.35" departSpeed="max">
        <route edges="-2 -3"/>
    </vehicle>
    <vehicle id="142" type="passenger" depart="132.75" departLane="random" departPos="6.90" departSpeed="max">
        <route edges="21 20 -15"/>
    </vehicle>
    <vehicle id="143" type="passenger" depart="132.75" departLane="random" departPos="15.60" departSpeed="max">
        <route edges="6 -18 -20 -21 2 1 -13 12"/>
    </vehicle>
    <vehicle id="144" type="passenger" depart="133.00" departLane="random" departPos="1.38" departSpeed="max">
        <route edges="-9 -21 2 1 -5 -18"/>
    </vehicle>
    <vehicle id="145" type="passenger" depart="133.50" departLane="random" departPos="6.63" departSpeed="max">
        <route edges="14 13 -5 -6 -22 19 5"/>
    </vehicle>
    <vehicle id="146" type="passenger" depart="133.75" departLane="random" departPos="41.09" departSpeed="max">
        <route edges="-15 -7 2 -11 -12 -14"/>
    </vehicle>
    <vehicle id="147" type="passenger" depart="137.25" departLane="random" departPos="9.43" departSpeed="max">
        <route edges="11 1 -5 -6"/>
    </vehicle>
    <vehicle id="148" type="passenger" depart="137.25" departLane="random" departPos="14.54" departSpeed="max">
        <route edges="-18 14"/>
    </vehicle>
    <vehicle id="149" type="passenger" depart="137.25" departLane="random" departPos="3.52" departSpeed="max">
        <route edges="9 -12 -14 -15"/>
    </vehicle>
    <vehicle id="150" type="passenger" depart="138.00" departLane="random" departPos="0.95" departSpeed="max">
        <route edges="9 -12 -14 -20 -21 2 -11 -9"/>
    </vehicle>
    <vehicle id="151" type="passenger" depart="141.25" departLane="random" departPos="19.60" departSpeed="max">
        <route edges="-11 -12 -14 -15 6"/>
    </vehicle>
    <vehicle id="152" type="passenger" depart="141.75" departLane="random" departPos="15.14" departSpeed="max">
        <route edges="6 5"/>
    </vehicle>
    <vehicle id="153" type="passenger" depart="142.00" departLane="random" departPos="3.98" departSpeed="max">
        <route edges="9 11 1"/>
    </vehicle>
    <vehicle id="154" type="passenger" depart="144.00" departLane="random" departPos="27.17" departSpeed="max">
        <route edges="13 -5 -18 -20 -21"/>
    </vehicle>
    <vehicle id="155" type="passenger" depart="144.00" departLane="random" departPos="7.80" departSpeed="max">
        <route edges="9 -12 -14 -20 -21 2"/>
    </vehicle>
    <vehicle id="156" type="passenger" depart="146.50" departLane="random" departPos="22.09" departSpeed="max">
        <route edges="13 -5 -6 -7 21 20"/>
    </vehicle>
    <vehicle id="157" type="passenger" depart="146.75" departLane="random" departPos="13.11" departSpeed="max">
        <route edges="5 4 -2 -3 -22"/>
    </vehicle>
    <vehicle id="158" type="passenger" depart="147.75" departLane="random" departPos="109.51" departSpeed="max">
        <route edges="-7 2 -11 -12"/>
    </vehicle>
    <vehicle id="159" type="passenger" depart="147.75" departLane="random" departPos="5.15" departSpeed="max">
        <route edges="-14 -20 -21 2 -11"/>
    </vehicle>
    <vehicle id="160" type="passenger" depart="150.25" departLane="random" departPos="2.66" departSpeed="max">
        <route edges="-2 -3"/>
    </vehicle>
    <vehicle id="161" type="passenger" depart="151.75" departLane="random" departPos="27.73" departSpeed="max">
        <route edges="12 11 1 -5 -18"/>
    </vehicle>
    <vehicle id="162" type="passenger" depart="151.75" departLane="random" departPos="1.60" departSpeed="max">
        <route edges="2"/>
    </vehicle>
    <vehicle id="163" type="passenger" depart="152.75" departLane="random" departPos="20.53" departSpeed="max">
        <route edges="-13 -14 -15 -7 21"/>
    </vehicle>
    <vehicle id="164" type="passenger" depart="153.75" departLane="random" departPos="38.27" departSpeed="max">
        <route edges="6 -18 -20 9"/>
    </vehicle>
    <vehicle id="165" type="passenger" depart="154.25" departLane="random" departPos="82.62" departSpeed="max">
        <route edges="-7 2 1 -13 12 11"/>
    </vehicle>
    <vehicle id="166" type="passenger" depart="154.50" departLane="random" departPos="20.94" departSpeed="max">
        <route edges="-12 -14 19 -6 -22 14 13"/>
    </vehicle>