<?xml version="1.0" encoding="UTF-8"?>

<!-- generated on 2026-06-25 09:48:05.915553 by Eclipse SUMO randomTrips.py UNKNOWN
<configuration>
    <net-file value="/home/umd-user/Downloads/Planning module/opencda/planning_module/opencda_scenario/assets/Town10HD_Opt/Town10HD_Opt.net.xml"/>
    <output-trip-file value="/home/umd-user/Downloads/Planning module/opencda/planning_module/opencda_scenario/assets/Town10HD_Opt/Town10HD_Opt.trips.xml"/>
    <route-file value="/home/umd-user/Downloads/Planning module/opencda/planning_module/opencda_scenario/assets/Town10HD_Opt/Town10HD_Opt.rou.xml"/>
    <trip-attributes value="departLane=&quot;random&quot; departSpeed=&quot;max&quot;"/>
    <vehicle-class value="passenger"/>
    <random-departpos value="True"/>
    <fringe-factor value="8.0"/>
    <period value="0.75"/>
    <random-depart value="True"/>
</configuration>
-->

<routes xmlns:xsi="http://www.w3.org/2001/XMLSchema-instance" xsi:noNamespaceSchemaLocation="http://sumo.dlr.de/xsd/routes_file.xsd">
    <vType id="passenger" vClass="passenger"/>
    <trip id="0" depart="0.00" from="-21" to="-11" departLane="random" departSpeed="max" type="passenger" departPos="0.21"/>
    <trip id="1" depart="0.25" from="-12" to="-5" departLane="random" departSpeed="max" type="passenger" departPos="27.67"/>
    <trip id="2" depart="0.50" from="14" to="-22" departLane="random" departSpeed="max" type="passenger" departPos="6.05"/>
    <trip id="3" depart="1.00" from="-20" to="-11" departLane="random" departSpeed="max" type="passenger" departPos="32.69"/>
    <trip id="4" depart="1.00" from="-12" to="11" departLane="random" departSpeed="max" type="passenger" departPos="47.09"/>
    <trip id="5" depart="2.50" from="-2" to="11" departLane="random" departSpeed="max" type="passenger" departPos="0.99"/>
    <trip id="6" depart="2.75" from="6" to="-13" departLane="random" departSpeed="max" type="passenger" departPos="58.68"/>
    <trip id="7" depart="4.50" from="-3" to="2" departLane="random" departSpeed="max" type="passenger" departPos="119.66"/>
    <trip id="8" depart="4.75" from="20" to="-18" departLane="random" departSpeed="max" type="passenger" departPos="5.85"/>
    <trip id="9" depart="6.00" from="-18" to="-21" departLane="random" departSpeed="max" type="passenger" departPos="14.43"/>
    <trip id="10" depart="6.50" from="-13" to="-6" departLane="random" departSpeed="max" type="passenger" departPos="30.18"/>
    <trip id="11" depart="10.50" from="2" to="14" departLane="random" departSpeed="max" type="passenger" departPos="5.45"/>
    <trip id="12" depart="11.00" from="2" to="-20" departLane="random" departSpeed="max" type="passenger" departPos="6.37"/>
    <trip id="13" depart="11.25" from="-20" to="-12" departLane="random" departSpeed="max" type="passenger" departPos="20.51"/>
    <trip id="14" depart="14.50" from="9" to="-20" departLane="random" departSpeed="max" type="passenger" departPos="6.38"/>
    <trip id="15" depart="14.50" from="-15" to="-12" departLane="random" departSpeed="max" type="passenger" departPos="40.50"/>
    <trip id="16" depart="14.75" from="-18" to="-3" departLane="random" departSpeed="max" type="passenger" departPos="14.10"/>
    <trip id="17" depart="15.25" from="-14" to="1" departLane="random" departSpeed="max" type="passenger" departPos="3.60"/>
    <trip id="18" depart="16.75" from="12" to="-13" departLane="random" departSpeed="max" type="passenger" departPos="23.26"/>
    <trip id="19" depart="17.00" from="-20" to="-11" departLane="random" departSpeed="max" type="passenger" departPos="3.72"/>
    <trip id="20" depart="19.75" from="19" to="2" departLane="random" departSpeed="max" type="passenger" departPos="0.41"/>
    <trip id="21" depart="20.75" from="-7" to="13" departLane="random" departSpeed="max" type="passenger" departPos="0.14"/>
    <trip id="22" depart="21.00" from="-12" to="-3" departLane="random" departSpeed="max" type="passenger" departPos="7.99"/>
    <trip id="23" depart="21.50" from="-22" to="-3" departLane="random" departSpeed="max" type="passenger" departPos="0.15"/>
    <trip id="24" depart="26.75" from="14" to="2" departLane="random" departSpeed="max" type="passenger" departPos="3.99"/>
    <trip id="25" depart="27.00" from="-5" to="19" departLane="random" departSpeed="max" type="passenger" departPos="78.66"/>
    <trip id="26" depart="27.50" from="-12" to="-2" departLane="random" departSpeed="max" type="passenger" departPos="20.25"/>
    <trip id="27" depart="29.00" from="14" to="2" departLane="random" departSpeed="max" type="passenger" departPos="1.01"/>
    <trip id="28" depart="29.50" from="-9" to="9" departLane="random" departSpeed="max" type="passenger" departPos="2.62"/>
    <trip id="29" depart="29.75" from="-21" to="-12" departLane="random" departSpeed="max" type="passenger" departPos="24.19"/>
    <trip id="30" depart="31.75" from="13" to="-3" departLane="random" departSpeed="max" type="passenger" departPos="25.87"/>
    <trip id="31" depart="32.25" from="-22" to="21" departLane="random" departSpeed="max" type="passenger" departPos="31.56"/>
    <trip id="32" depart="33.50" from="-21" to="-18" departLane="random" departSpeed="max" type="passenger" departPos="13.45"/>
    <trip id="33" depart="33.50" from="9" to="13" departLane="random" departSpeed="max" type="passenger" departPos="2.35"/>
    <trip id="34" depart="34.00" from="-3" to="-13" departLane="random" departSpeed="max" type="passenger" departPos="127.22"/>
    <trip id="35" depart="34.75" from="-7" to="4" departLane="random" departSpeed="max" type="passenger" departPos="70.74"/>
    <trip id="36" depart="36.00" from="-18" to="-11" departLane="random" departSpeed="max" type="passenger" departPos="0.55"/>
    <trip id="37" depart="36.75" from="9" to="-2" departLane="random" departSpeed="max" type="passenger" departPos="3.05"/>
    <trip id="38" depart="36.75" from="20" to="13" departLane="random" departSpeed="max" type="passenger" departPos="26.37"/>
    <trip id="39" depart="37.50" from="9" to="20" departLane="random" departSpeed="max" type="passenger" departPos="7.59"/>
    <trip id="40" depart="37.75" from="-11" to="-22" departLane="random" departSpeed="max" type="passenger" departPos="8.62"/>
    <trip id="41" depart="38.50" from="19" to="-5" departLane="random" departSpeed="max" type="passenger" departPos="4.63"/>
    <trip id="42" depart="38.75" from="13" to="-9" departLane="random" departSpeed="max" type="passenger" departPos="28.50"/>
    <trip id="43" depart="39.00" from="4" to="1" departLane="random" departSpeed="max" type="passenger" departPos="130.54"/>
    <trip id="44" depart="39.25" from="-2" to="-13" departLane="random" departSpeed="max" type="passenger" departPos="6.00"/>
    <trip id="45" depart="39.50" from="-7" to="-11" departLane="random" departSpeed="max" type="passenger" departPos="146.52"/>
    <trip id="46" depart="41.00" from="12" to="-2" departLane="random" departSpeed="max" type="passenger" departPos="34.18"/>
    <trip id="47" depart="43.25" from="-11" to="12" departLane="random" departSpeed="max" type="passenger" departPos="23.08"/>
    <trip id="48" depart="43.50" from="20" to="-13" departLane="random" departSpeed="max" type="passenger" departPos="32.26"/>
    <trip id="49" depart="46.00" from="21" to="-12" departLane="random" departSpeed="max" type="passenger" departPos="19.83"/>
    <trip id="50" depart="46.25" from="-14" to="11" departLane="random" departSpeed="max" type="passenger" departPos="5.13"/>
    <trip id="51" depart="46.50" from="-12" to="-18" departLane="random" departSpeed="max" type="passenger" departPos="17.77"/>
    <trip id="52" depart="47.75" from="21" to="19" departLane="random" departSpeed="max" type="passenger" departPos="9.75"/>
    <trip id="53" depart="48.00" from="-14" to="14" departLane="random" departSpeed="max" type="passenger" departPos="4.55"/>
    <trip id="54" depart="48.50" from="-22" to="9" departLane="random" departSpeed="max" type="passenger" departPos="8.85"/>
    <trip id="55" depart="48.75" from="-12" to="-15" departLane="random" departSpeed="max" type="passenger" departPos="3.33"/>
    <trip id="56" depart="49.25" from="-20" to="2" departLane="random" departSpeed="max" type="passenger" departPos="8.87"/>
    <trip id="57" depart="50.25" from="-3" to="-15" departLane="random" departSpeed="max" type="passenger" departPos="45.00"/>
    <trip id="58" depart="50.50" from="11" to="-14" departLane="random" departSpeed="max" type="passenger" departPos="20.18"/>
    <trip id="59" depart="51.25" from="12" to="-3" departLane="random" departSpeed="max" type="passenger" departPos="8.31"/>
    <trip id="60" depart="51.25" from="4" to="-13" departLane="random" departSpeed="max" type="passenger" departPos="1.27"/>
    <trip id="61" depart="52.75" from="5" to="14" departLane="random" departSpeed="max" type="passenger" departPos="69.31"/>
    <trip id="62" depart="53.50" from="-20" to="14" departLane="random" departSpeed="max" type="passenger" departPos="41.81"/>
    <trip id="63" depart="53.50" from="-7" to="-14" departLane="random" departSpeed="max" type="passenger" departPos="23.11"/>
    <trip id="64" depart="56.50" from="-20" to="-6" departLane="random" departSpeed="max" type="passenger" departPos="12.63"/>
    <trip id="65" depart="56.75" from="-15" to="14" departLane="random" departSpeed="max" type="passenger" departPos="24.66"/>
    <trip id="66" depart="57.25" from="19" to="12" departLane="random" departSpeed="max" type="passenger" departPos="1.92"/>
    <trip id="67" depart="57.75" from="21" to="-21" departLane="random" departSpeed="max" type="passenger" departPos="10.16"/>
    <trip id="68" depart="60.25" from="1" to="-18" departLane="random" departSpeed="max" type="passenger" departPos="150.89"/>
    <trip id="69" depart="60.50" from="9" to="12" departLane="random" departSpeed="max" type="passenger" departPos="6.77"/>
    <trip id="70" depart="64.25" from="9" to="-9" departLane="random" departSpeed="max" type="passenger" departPos="3.64"/>
    <trip id="71" depart="66.00" from="12" to="-18" departLane="random" departSpeed="max" type="passenger" departPos="2.80"/>
    <trip id="72" depart="68.00" from="-14" to="-15" departLane="random" departSpeed="max" type="passenger" departPos="7.04"/>
    <trip id="73" depart="68.00" from="5" to="-7" departLane="random" departSpeed="max" type="passenger" departPos="18.65"/>
    <trip id="74" depart="69.25" from="5" to="-12" departLane="random" departSpeed="max" type="passenger" departPos="42.51"/>
    <trip id="75" depart="70.75" from="-18" to="-20" departLane="random" departSpeed="max" type="passenger" departPos="13.48"/>
    <trip id="76" depart="70.75" from="4" to="-6" departLane="random" departSpeed="max" type="passenger" departPos="18.39"/>
    <trip id="77" depart="72.00" from="-12" to="1" departLane="random" departSpeed="max" type="passenger" departPos="8.33"/>
    <trip id="78" depart="75.50" from="-11" to="-9" departLane="random" departSpeed="max" type="passenger" departPos="1.81"/>
    <trip id="79" depart="76.25" from="-2" to="-6" departLane="random" departSpeed="max" type="passenger" departPos="4.73"/>
    <trip id="80" depart="76.25" from="-5" to="19" departLane="random" departSpeed="max" type="passenger" departPos="87.00"/>
    <trip id="81" depart="76.75" from="-2" to="-14" departLane="random" departSpeed="max" type="passenger" departPos="1.86"/>
    <trip id="82" depart="77.00" from="-2" to="-5" departLane="random" departSpeed="max" type="passenger" departPos="1.63"/>
    <trip id="83" depart="77.50" from="4" to="-13" departLane="random" departSpeed="max" type="passenger" departPos="103.06"/>
    <trip id="84" depart="79.00" from="-12" to="-6" departLane="random" departSpeed="max" type="passenger" departPos="11.39"/>
    <trip id="85" depart="79.25" from="12" to="-15" departLane="random" departSpeed="max" type="passenger" departPos="19.68"/>
    <trip id="86" depart="79.50" from="-6" to="-18" departLane="random" departSpeed="max" type="passenger" departPos="26.48"/>
    <trip id="87" depart="79.50" from="-20" to="-22" departLane="random" departSpeed="max" type="passenger" departPos="1.69"/>
    <trip id="88" depart="80.75" from="1" to="-20" departLane="random" departSpeed="max" type="passenger" departPos="16.99"/>
    <trip id="89" depart="81.00" from="-7" to="-5" departLane="random" departSpeed="max" type="passenger" departPos="122.80"/>
    <trip id="90" depart="81.50" from="-2" to="-21" departLane="random" departSpeed="max" type="passenger" departPos="1.28"/>
    <trip id="91" depart="82.25" from="20" to="6" departLane="random" departSpeed="max" type="passenger" departPos="47.80"/>
    <trip id="92" depart="83.00" from="11" to="1" departLane="random" departSpeed="max" type="passenger" departPos="5.86"/>
    <trip id="93" depart="84.00" from="-5" to="-9" departLane="random" departSpeed="max" type="passenger" departPos="83.50"/>
    <trip id="94" depart="86.75" from="-2" to="-7" departLane="random" departSpeed="max" type="passenger" departPos="3.78"/>
    <trip id="95" depart="87.25" from="-11" to="-5" departLane="random" departSpeed="max" type="passenger" departPos="22.26"/>
    <trip id="96" depart="89.25" from="-2" to="-6" departLane="random" departSpeed="max" type="passenger" departPos="1.81"/>
    <trip id="97" depart="90.75" from="5" to="6" departLane="random" departSpeed="max" type="passenger" departPos="106.66"/>
    <trip id="98" depart="93.50" from="5" to="-5" departLane="random" departSpeed="max" type="passenger" departPos="5.16"/>
    <trip id="99" depart="94.00" from="9" to="19" departLane="random" departSpeed="max" type="passenger" departPos="3.96"/>
    <trip id="100" depart="97.00" from="-5" to="-5" departLane="random" departSpeed="max" type="passenger" departPos="78.41"/>
    <trip id="101" depart="98.00" from="14" to="-13" departLane="random" departSpeed="max" type="passenger" departPos="4.13"/>
    <trip id="102" depart="99.00" from="-13" to="2" departLane="random" departSpeed="max" type="passenger" departPos="21.02"/>
    <trip id="103" depart="101.50" from="-5" to="-2" departLane="random" departSpeed="max" type="passenger" departPos="34.71"/>
    <trip id="104" depart="102.00" from="-2" to="9" departLane="random" departSpeed="max" type="passenger" departPos="0.13"/>
    <trip id="105" depart="102.75" from="13" to="-15" departLane="random" departSpeed="max" type="passenger" departPos="13.93"/>
    <trip id="106" depart="105.25" from="1" to="11" departLane="random" departSpeed="max" type="passenger" departPos="149.33"/>
    <trip id="107" depart="105.50" from="-6" to="-14" departLane="random" departSpeed="max" type="passenger" departPos="51.92"/>
    <trip id="108" depart="106.50" from="-18" to="4" departLane="random" departSpeed="max" type="passenger" departPos="13.70"/>
    <trip id="109" depart="107.25" from="14" to="-11" departLane="random" departSpeed="max" type="passenger" departPos="5.23"/>
    <trip id="110" depart="107.50" from="-3" to="14" departLane="random" departSpeed="max" type="passenger" departPos="98.05"/>
    <trip id="111" depart="109.00" from="-21" to="2" departLane="random" departSpeed="max" type="passenger" departPos="16.93"/>
    <trip id="112" depart="110.50" from="12" to="11" departLane="random" departSpeed="max" type="passenger" departPos="10.91"/>
    <trip id="113" depart="111.25" from="14" to="12" departLane="random" departSpeed="max" type="passenger" departPos="2.80"/>
    <trip id="114" depart="111.50" from="6" to="-9" departLane="random" departSpeed="max" type="passenger" departPos="88.31"/>
    <trip id="115" depart="112.50" from="-3" to="-12" departLane="random" departSpeed="max" type="passenger" departPos="70.72"/>
    <trip id="116" depart="115.75" from="-7" to="-12" departLane="random" departSpeed="max" type="passenger" departPos="59.18"/>
    <trip id="117" depart="115.75" from="13" to="14" departLane="random" departSpeed="max" type="passenger" departPos="17.00"/>
    <trip id="118" depart="117.00" from="2" to="-14" departLane="random" departSpeed="max" type="passenger" departPos="2.73"/>
    <trip id="119" depart="117.25" from="1" to="13" departLane="random" departSpeed="max" type="passenger" departPos="112.77"/>
    <trip id="120" depart="118.25" from="2" to="4" departLane="random" departSpeed="max" type="passenger" departPos="5.74"/>
    <trip id="121" depart="119.00" from="2" to="2" departLane="random" departSpeed="max" type="passenger" departPos="2.61"/>
    <trip id="122" depart="120.00" from="5" to="-9" departLane="random" departSpeed="max" type="passenger" departPos="49.37"/>
    <trip id="123" depart="120.00" from="-12" to="-3" departLane="random" departSpeed="max" type="passenger" departPos="23.83"/>
    <trip id="124" depart="120.25" from="-9" to="21" departLane="random" departSpeed="max" type="passenger" departPos="3.69"/>
    <trip id="125" depart="120.25" from="-9" to="21" departLane="random" departSpeed="max" type="passenger" departPos="7.06"/>
    <trip id="126" depart="120.75" from="-6" to="-3" departLane="random" departSpeed="max" type="passenger" departPos="49.72"/>
    <trip id="127" depart="123.25" from="14" to="9" departLane="random" departSpeed="max" type="passenger" departPos="7.37"/>
    <trip id="128" depart="125.25" from="-18" to="4" departLane="random" departSpeed="max" type="passenger" departPos="1.91"/>
    <trip id="129" depart="125.50" from="-3" to="-18" departLane="random" departSpeed="max" type="passenger" departPos="176.97"/>
    <trip id="130" depart="127.00" from="-13" to="-15" departLane="random" departSpeed="max" type="passenger" departPos="3.40"/>
    <trip id="131" depart="127.00" from="-15" to="-15" departLane="random" departSpeed="max" type="passenger" departPos="8.45"/>
    <trip id="132" depart="127.00" from="6" to="-11" departLane="random" departSpeed="max" type="passenger" departPos="40.42"/>
    <trip id="133" depart="127.25" from="14" to="6" departLane="random" departSpeed="max" type="passenger" departPos="3.95"/>
    <trip id="134" depart="127.75" from="-5" to="19" departLane="random" departSpeed="max" type="passenger" departPos="2.08"/>
    <trip id="135" depart="127.75" from="-18" to="-11" departLane="random" departSpeed="max" type="passenger" departPos="17.52"/>
    <trip id="136" depart="128.25" from="21" to="-9" departLane="random" departSpeed="max" type="passenger" departPos="8.15"/>
    <trip id="137" depart="129.00" from="11" to="13" departLane="random" departSpeed="max" type="passenger" departPos="20.07"/>
    <trip id="138" depart="130.50" from="-7" to="13" departLane="random" departSpeed="max" type="passenger" departPos="85.63"/>
    <trip id="139" depart="130.50" from="1" to="-6" departLane="random" departSpeed="max" type="passenger" departPos="86.76"/>
    <trip id="140" depart="132.00" from="5" to="-21" departLane="random" departSpeed="max" type="passenger" departPos="92.13"/>
    <trip id="141" depart="132.75" from="-2" to="-3" departLane="random" departSpeed="max" type="passenger" departPos="2.35"/>
    <trip id="142" depart="132.75" from="21" to="-15" departLane="random" departSpeed="max" type="passenger" departPos="6.90"/>
    <trip id="143" depart="132.75" from="6" to="12" departLane="random" departSpeed="max" type="passenger" departPos="15.60"/>
    <trip id="144" depart="133.00" from="-9" to="-18" departLane="random" departSpeed="max" type="passenger" departPos="1.38"/>
    <trip id="145" depart="133.50" from="14" to="5" departLane="random" departSpeed="max" type="passenger" departPos="6.63"/>
    <trip id="146" depart="133.75" from="-15" to="-14" departLane="random" departSpeed="max" type="passenger" departPos="41.09"/>
    <trip id="147" depart="137.25" from="11" to="-6" departLane="random" departSpeed="max" type="passenger" departPos="9.43"/>
    <trip id="148" depart="137.25" from="-18" to="14" departLane="random" departSpeed="max" type="passenger" departPos="14.54"/>
    <trip id="149" depart="137.25" from="9" to="-15" departLane="random" departSpeed="max" type="passenger" departPos="3.52"/>
    <trip id="150" depart="138.00" from="9" to="-9" departLane="random" departSpeed="max" type="passenger" departPos="0.95"/>
    <trip id="151" depart="141.25" from="-11" to="6" departLane="random" departSpeed="max" type="passenger" departPos="19.60"/>
    <trip id="152" depart="141.75" from="6" to="5" departLane="random" departSpeed="max" type="passenger" departPos="15.14"/>
    <trip id="153" depart="142.00" from="9" to="1" departLane="random" departSpeed="max" type="passenger" departPos="3.98"/>
    <trip id="154" depart="144.00" from="13" to="-21" departLane="random" departSpeed="max" type="passenger" departPos="27.17"/>
    <trip id="155" depart="144.00" from="9" to="2" departLane="random" departSpeed="max" type="passenger" departPos="7.80"/>
    <trip id="156" depart="146.50" from="13" to="20" departLane="random" departSpeed="max" type="passenger" departPos="22.09"/>
    <trip id="157" depart="146.75" from="5" to="-22" departLane="random" departSpeed="max" type="passenger" departPos="13.11"/>
    <trip id="158" depart="147.75" from="-7" to="-12" departLane="random" departSpeed="max" type="passenger" departPos="109.51"/>
    <trip id="159" depart="147.75" from="-14" to="-11" departLane="random" departSpeed="max" type="passenger" departPos="5.15"/>
    <trip id="160" depart="150.25" from="-2" to="-3" departLane="random" departSpeed="max" type="passenger" departPos="2.66"/>
    <trip id="161" depart="151.75" from="12" to="-18" departLane="random" departSpeed="max" type="passenger" departPos="27.73"/>
    <trip id="162" depart="151.75" from="2" to="2" departLane="random" departSpeed="max" type="passenger" departPos="1.60"/>
    <trip id="163" depart="152.75" from="-13" to="21" departLane="random" departSpeed="max" type="passenger" departPos="20.53"/>
    <trip id="164" depart="153.75" from="6" to="9" departLane="random" departSpeed="max" type="passenger" departPos="38.27"/>
    <trip id="165" depart="154.25" from="-7" to="11" departLane="random" departSpeed="max" type="passenger" departPos="82.62"/>
    <trip id="166" depart="154.50" from="-12" to="13" departLane="random" departSpeed="max" type="passenger" departPos="20.94"/>
    <trip id="167" depart="154.75" from="19" to="-5" departLane="random" departSpeed="max" type="passenger" departPos="8.44"/>
    <trip id="168" depart="154.75" from="-11" to="-22" departLane="random" departSpeed="max" type="passenger" departPos="7.86"/>
    <trip id="169" depart="155.50" from="-6" to="1" departLane="random" departSpeed="max" type="passenger" departPos="15.93"/>
    <trip id="170" depart="155.75" from="4" to="19" departLane="random" departSpeed="max" type="passenger" departPos="73.21"/>
    <trip id="171" depart="156.00" from="-6" to="-15" departLane="random" departSpeed="max" type="passenger" departPos="53.76"/>
    <trip id="172" depart="156.25" from="5" to="19" departLane="random" departSpeed="max" type="passenger" departPos="48.35"/>
    <trip id="173" depart="157.00" from="21" to="11" departLane="random" departSpeed="max" type="passenger" departPos="3.48"/>
    <trip id="174" depart="158.75" from="-21" to="9" departLane="random" departSpeed="max" type="passenger" departPos="12.74"/>
    <trip id="175" depart="159.25" from="-22" to="6" departLane="random" departSpeed="max" type="passenger" departPos="24.51"/>
    <trip id="176" depart="160.00" from="-3" to="-11" departLane="random" departSpeed="max" type="passenger" departPos="117.97"/>
    <trip id="177" depart="161.25" from="-20" to="-15" departLane="random" departSpeed="max" type="passenger" departPos="24.39"/>
    <trip id="178" depart="161.75" from="1" to="5" departLane="random" departSpeed="max" type="passenger" departPos="30.47"/>
    <trip id="179" depart="162.00" from="21" to="-21" departLane="random" departSpeed="max" type="passenger" departPos="11.90"/>
    <trip id="180" depart="162.75" from="21" to="-21" departLane="random" departSpeed="max" type="passenger" departPos="14.20"/>
    <trip id="181" depart="163.25" from="-7" to="19" departLane="random" departSpeed="max" type="passenger" departPos="36.26"/>
    <trip id="182" depart="163.75" from="20" to="-15" departLane="random" departSpeed="max" type="passenger" departPos="15.84"/>
    <trip id="183" depart="163.75" from="12" to="12" departLane="random" departSpeed="max" type="passenger" departPos="6.54"/>
    <trip id="184" depart="163.75" from="13" to="-21" departLane="random" departSpeed="max" type="passenger" departPos="5.44"/>
    <trip id="185" depart="164.75" from="5" to="13" departLane="random" departSpeed="max" type="passenger" departPos="3.32"/>
    <trip id="186" depart="164.75" from="2" to="-7" departLane="random" departSpeed="max" type="passenger" departPos="7.92"/>
    <trip id="187" depart="165.00" from="11" to="-3" departLane="random" departSpeed="max" type="passenger" departPos="12.26"/>
    <trip id="188" depart="168.00" from="-6" to="-20" departLane="random" departSpeed="max" type="passenger" departPos="50.65"/>
    <trip id="189" depart="168.25" from="9" to="20" departLane="random" departSpeed="max" type="passenger" departPos="2.93"/>
    <trip id="190" depart="170.00" from="19" to="-11" departLane="random" departSpeed="max" type="passenger" departPos="5.67"/>
    <trip id="191" depart="171.00" from="11" to="-15" departLane="random" departSpeed="max" type="passenger" departPos="11.76"/>
    <trip id="192" depart="171.50" from="14" to="-3" departLane="random" departSpeed="max" type="passenger" departPos="0.44"/>
    <trip id="193" depart="172.50" from="-3" to="12" departLane="random" departSpeed="max" type="passenger" departPos="176.40"/>
    <trip id="194" depart="173.50" from="-12" to="-21" departLane="random" departSpeed="max" type="passenger" departPos="33.66"/>
    <trip id="195" depart="173.75" from="-13" to="-18" departLane="random" departSpeed="max" type="passenger" departPos="19.04"/>
    <trip id="196" depart="173.75" from="2" to="11" departLane="random" departSpeed="max" type="passenger" departPos="1.36"/>
    <trip id="197" depart="174.00" from="-22" to="-21" departLane="random" departSpeed="max" type="passenger" departPos="35.07"/>
    <trip id="198" depart="174.50" from="20" to="-20" departLane="random" departSpeed="max" type="passenger" departPos="36.84"/>
    <trip id="199" depart="174.75" from="-3" to="-9" departLane="random" departSpeed="max" type="passenger" departPos="64.94"/>
    <trip id="200" depart="178.25" from="-15" to="-14" departLane="random" departSpeed="max" type="passenger" departPos="11.64"/>
    <trip id="201" depart="178.50" from="2" to="-5" departLane="random" departSpeed="max" type="passenger" departPos="7.51"/>
    <trip id="202" depart="179.00" from="-15" to="-2" departLane="random" departSpeed="max" type="passenger" departPos="20.81"/>
    <trip id="203" depart="179.50" from="21" to="20" departLane="random" departSpeed="max" type="passenger" departPos="13.55"/>
    <trip id="204" depart="180.50" from="14" to="6" departLane="random" departSpeed="max" type="passenger" departPos="7.06"/>
    <trip id="205" depart="180.75" from="14" to="14" departLane="random" departSpeed="max" type="passenger" departPos="6.69"/>
    <trip id="206" depart="181.25" from="-5" to="5" departLane="random" departSpeed="max" type="passenger" departPos="11.29"/>
    <trip id="207" depart="181.25" from="-14" to="-11" departLane="random" departSpeed="max" type="passenger" departPos="2.90"/>
    <trip id="208" depart="183.25" from="14" to="-14" departLane="random" departSpeed="max" type="passenger" departPos="3.69"/>
    <trip id="209" depart="185.00" from="9" to="-9" departLane="random" departSpeed="max" type="passenger" departPos="7.62"/>
    <trip id="210" depart="185.25" from="-15" to="-21" departLane="random" departSpeed="max" type="passenger" departPos="30.78"/>
    <trip id="211" depart="185.25" from="-14" to="-14" departLane="random" departSpeed="max" type="passenger" departPos="5.79"/>
    <trip id="212" depart="186.25" from="14" to="-21" departLane="random" departSpeed="max" type="passenger" departPos="1.75"/>
    <trip id="213" depart="186.25" from="9" to="-5" departLane="random" departSpeed="max" type="passenger" departPos="5.99"/>
    <trip id="214" depart="186.25" from="-14" to="-11" departLane="random" departSpeed="max" type="passenger" departPos="4.04"/>
    <trip id="215" depart="187.00" from="-6" to="-18" departLane="random" departSpeed="max" type="passenger" departPos="2.42"/>
    <trip id="216" depart="187.25" from="13" to="11" departLane="random" departSpeed="max" type="passenger" departPos="14.22"/>
    <trip id="217" depart="188.00" from="5" to="-12" departLane="random" departSpeed="max" type="passenger" departPos="35.21"/>
    <trip id="218" depart="188.25" from="-11" to="-13" departLane="random" departSpeed="max" type="passenger" departPos="3.16"/>
    <trip id="219" depart="188.50" from="11" to="11" departLane="random" departSpeed="max" type="passenger" departPos="5.10"/>
    <trip id="220" depart="188.50" from="13" to="-11" departLane="random" departSpeed="max" type="passenger" departPos="4.41"/>
    <trip id="221" depart="189.50" from="19" to="-20" departLane="random" departSpeed="max" type="passenger" departPos="12.67"/>
    <trip id="222" depart="190.00" from="-22" to="21" departLane="random" departSpeed="max" type="passenger" departPos="32.40"/>
    <trip id="223" depart="190.25" from="12" to="-9" departLane="random" departSpeed="max" type="passenger" departPos="3.60"/>
    <trip id="224" depart="190.75" from="20" to="2" departLane="random" departSpeed="max" type="passenger" departPos="27.91"/>
    <trip id="225" depart="192.25" from="19" to="6" departLane="random" departSpeed="max" type="passenger" departPos="3.75"/>
    <trip id="226" depart="192.50" from="2" to="-11" departLane="random" departSpeed="max" type="passenger" departPos="5.92"/>
    <trip id="227" depart="195.00" from="5" to="5" departLane="random" departSpeed="max" type="passenger" departPos="99.37"/>